Version 4
SHEET 1 1476 680
WIRE 80 -880 -32 -880
WIRE 384 -880 80 -880
WIRE 608 -880 480 -880
WIRE 656 -880 608 -880
WIRE 768 -880 736 -880
WIRE 880 -880 768 -880
WIRE 1120 -880 880 -880
WIRE 80 -848 80 -880
WIRE 608 -832 608 -880
WIRE 320 -800 256 -800
WIRE 880 -784 880 -880
WIRE 432 -768 432 -816
WIRE 560 -768 432 -768
WIRE 768 -768 768 -880
WIRE 768 -768 656 -768
WIRE 256 -752 256 -800
WIRE 80 -736 80 -768
WIRE 224 -736 80 -736
WIRE 432 -720 432 -768
WIRE 432 -720 288 -720
WIRE 224 -704 192 -704
WIRE 256 -672 256 -688
WIRE 320 -672 256 -672
WIRE -32 -656 -32 -880
WIRE 80 -640 80 -736
WIRE 192 -576 192 -704
WIRE 880 -576 880 -704
WIRE 880 -576 192 -576
WIRE 880 -512 880 -576
WIRE -32 -384 -32 -576
WIRE 80 -384 80 -576
WIRE 80 -384 -32 -384
WIRE 880 -384 880 -432
WIRE 880 -384 80 -384
WIRE 1120 -384 880 -384
FLAG 80 -384 0
FLAG 400 -672 0
FLAG 320 -800 0
FLAG -32 -880 BoostConvertor_input
IOPIN -32 -880 In
FLAG 1120 -880 Voltage_into_micro
IOPIN 1120 -880 In
SYMBOL res 64 -864 R0
SYMATTR InstName R1
SYMATTR Value 1k
SYMBOL npn 384 -816 R270
SYMATTR InstName Q1
SYMATTR Value 2N2222
SYMBOL npn 560 -832 M90
SYMATTR InstName Q2
SYMATTR Value 2N2222
SYMBOL res 752 -896 R90
WINDOW 0 0 56 VBottom 2
WINDOW 3 32 56 VTop 2
SYMATTR InstName R2
SYMATTR Value 5
SYMBOL res 864 -528 R0
SYMATTR InstName R4
SYMATTR Value 100k
SYMBOL voltage -32 -672 R0
WINDOW 123 0 0 Left 0
WINDOW 39 0 0 Left 0
SYMATTR InstName V1
SYMATTR Value 12
SYMBOL voltage 304 -672 R270
WINDOW 0 32 56 VTop 2
WINDOW 3 -32 56 VBottom 2
WINDOW 123 0 0 Left 0
WINDOW 39 0 0 Left 0
SYMATTR InstName V2
SYMATTR Value 12
SYMBOL AutoGenerated\\DI_1N4728A 80 -608 R270
SYMATTR InstName U2
SYMBOL res 864 -800 R0
SYMATTR InstName R3
SYMATTR Value 8.27K
SYMBOL Opamps\\OP07 256 -656 M180
SYMATTR InstName U3
TEXT 304 -320 Left 2 !.tran 0 1 0 0.1
TEXT 304 -288 Left 2 !.step param R 1 1000 1
